test/data/matpower/multi_nw/bus_37/pypsa-eur_multinetwork_37/mpc_000_015.m
function mpc = mpc_000_015
%MPC_000_015	Extended MATPOWER case file generated from aggregated PyPSA generator and load data
%	Period: 0 	Weight: 36
%	Time step: 15

%%	MATPOWER Case Format : Version 2
mpc.version = '2';

%% system MVA base
mpc.baseMVA = 100;

%% Weight
mpc.weight = 36;

%% bus data
%	bus_i	type	Pd	Qd	Gs	Bs	area	Vm	Va	baseKV	zone	Vmax	Vmin
mpc.bus = [
	1	2	538.7851724450327	0.0	0.0	0.0	1	1.0	0.0	230.0	1	1.1	0.9;	%AL1 0
	2	2	9140.485203266995	0.0	0.0	0.0	2	1.0	0.0	230.0	1	1.1	0.9;	%AT1 0
	3	2	1550.6767545502603	0.0	0.0	0.0	3	1.0	0.0	230.0	1	1.1	0.9;	%BA1 0
	4	2	10724.955751822417	0.0	0.0	0.0	4	1.0	0.0	230.0	1	1.1	0.9;	%BE1 0
	5	2	4277.220757777569	0.0	0.0	0.0	5	1.0	0.0	230.0	1	1.1	0.9;	%BG1 0
	6	2	6201.015808069684	0.0	0.0	0.0	6	1.0	0.0	230.0	1	1.1	0.9;	%CH1 0
	7	2	8226.223564402724	0.0	0.0	0.0	7	1.0	0.0	230.0	1	1.1	0.9;	%CZ1 0
	8	2	60355.93518061744	0.0	0.0	0.0	8	1.0	0.0	230.0	1	1.1	0.9;	%DE1 0
	9	2	2330.7862627678214	0.0	0.0	0.0	9	1.0	0.0	230.0	1	1.1	0.9;	%DK1 0
	10	2	1780.0717463592482	0.0	0.0	0.0	10	1.0	0.0	230.0	1	1.1	0.9;	%DK2 0
	11	2	1095.9023369421386	0.0	0.0	0.0	11	1.0	0.0	230.0	1	1.1	0.9;	%EE6 0
	12	2	28034.051440925596	0.0	0.0	0.0	12	1.0	0.0	230.0	1	1.1	0.9;	%ES1 0
	13	2	605.943313817764	0.0	0.0	0.0	13	1.0	0.0	230.0	1	1.1	0.9;	%ES4 0
	14	2	11089.936463853794	0.0	0.0	0.0	14	1.0	0.0	230.0	1	1.1	0.9;	%FI2 0
	15	2	60313.52958775901	0.0	0.0	0.0	15	1.0	0.0	230.0	1	1.1	0.9;	%FR1 0
	16	2	47004.6039939193	0.0	0.0	0.0	16	1.0	0.0	230.0	1	1.1	0.9;	%GB0 0
	17	2	1157.5293925560545	0.0	0.0	0.0	17	1.0	0.0	230.0	1	1.1	0.9;	%GB5 0
	18	2	5067.891470919944	0.0	0.0	0.0	18	1.0	0.0	230.0	1	1.1	0.9;	%GR1 0
	19	2	2043.237447433137	0.0	0.0	0.0	19	1.0	0.0	230.0	1	1.1	0.9;	%HR1 0
	20	2	4880.266500980264	0.0	0.0	0.0	20	1.0	0.0	230.0	1	1.1	0.9;	%HU1 0
	21	2	3460.5226589726008	0.0	0.0	0.0	21	1.0	0.0	230.0	1	1.1	0.9;	%IE5 0
	22	2	36759.91781339008	0.0	0.0	0.0	22	1.0	0.0	230.0	1	1.1	0.9;	%IT1 0
	23	2	2025.6905652425605	0.0	0.0	0.0	23	1.0	0.0	230.0	1	1.1	0.9;	%IT3 0
	24	2	1369.8072683181247	0.0	0.0	0.0	24	1.0	0.0	230.0	1	1.1	0.9;	%LT6 0
	25	2	861.8479528953886	0.0	0.0	0.0	25	1.0	0.0	230.0	1	1.1	0.9;	%LU1 0
	26	2	988.3584311092615	0.0	0.0	0.0	26	1.0	0.0	230.0	1	1.1	0.9;	%LV6 0
	27	2	434.3648703011077	0.0	0.0	0.0	27	1.0	0.0	230.0	1	1.1	0.9;	%ME1 0
	28	2	972.4415307544492	0.0	0.0	0.0	28	1.0	0.0	230.0	1	1.1	0.9;	%MK1 0
	29	2	15355.0246857562	0.0	0.0	0.0	29	1.0	0.0	230.0	1	1.1	0.9;	%NL1 0
	30	2	16135.70533057339	0.0	0.0	0.0	30	1.0	0.0	230.0	1	1.1	0.9;	%NO2 0
	31	2	18622.236454342037	0.0	0.0	0.0	31	1.0	0.0	230.0	1	1.1	0.9;	%PL1 0
	32	2	6267.7346041254405	0.0	0.0	0.0	32	1.0	0.0	230.0	1	1.1	0.9;	%PT1 0
	33	2	6371.052179619777	0.0	0.0	0.0	33	1.0	0.0	230.0	1	1.1	0.9;	%RO1 0
	34	2	5084.007581446481	0.0	0.0	0.0	34	1.0	0.0	230.0	1	1.1	0.9;	%RS1 0
	35	2	18519.374368425335	0.0	0.0	0.0	35	1.0	0.0	230.0	1	1.1	0.9;	%SE2 0
	36	2	1599.8318658224418	0.0	0.0	0.0	36	1.0	0.0	230.0	1	1.1	0.9;	%SI1 0
	37	2	3462.066280422178	0.0	0.0	0.0	37	1.0	0.0	230.0	1	1.1	0.9;	%SK1 0
];

%% generator data
%	bus	Pg	Qg	Qmax	Qmin	Vg	mBase	status	Pmax	Pmin	H	n0	nE	nE_max	P_b_nom	carrier
mpc.gen = [
	1	0.0	0.0	0.0	-0.0	1.0	100.0	1	224.0	78.4	5.0	0	0	500	224.0	0;	%AL1 0 CCGT
	1	0.0	0.0	0.0	-0.0	1.0	100.0	1	224.0	78.4	2.8	0	0	500	224.0	1;	%AL1 0 OCGT
	1	0.0	0.0	0.0	-0.0	1.0	100.0	1	4.869778245206344	0.0	0.0	0	0	5500	17.0	2;	%AL1 0 offwind
	1	0.0	0.0	0.0	-0.0	1.0	100.0	1	44.92727152904733	0.0	2.8	2	2	2	50.0	3;	%AL1 0 oil
	1	0.0	0.0	0.0	-0.0	1.0	100.0	1	2.5009950219240444	0.0	0.0	0	0	2500	38.0	4;	%AL1 0 onwind
	1	0.0	0.0	0.0	-0.0	1.0	100.0	1	24.100043089343316	0.0	3.5	2	2	2	26.0	5;	%AL1 0 ror
	1	0.0	0.0	0.0	-0.0	1.0	100.0	1	1.615848268260483	0.0	0.0	1	1	3400	28.0	6;	%AL1 0 solar
	2	0.0	0.0	0.0	-0.0	1.0	100.0	1	217.66500000000002	78.4	5.0	20	20	13100	224.0	0;	%AT1 0 CCGT
	2	0.0	0.0	0.0	-0.0	1.0	100.0	1	224.0	78.4	2.8	0	0	13100	224.0	1;	%AT1 0 OCGT
	2	0.0	0.0	0.0	-0.0	1.0	100.0	1	9.306499675427112	0.0	0.0	85	85	76700	38.0	4;	%AT1 0 onwind
	2	0.0	0.0	0.0	-0.0	1.0	100.0	1	7.552255397116521	0.0	3.5	184	184	184	26.0	5;	%AT1 0 ror
	2	0.0	0.0	0.0	-0.0	1.0	100.0	1	2.9769971108430413	0.0	0.0	80	80	104100	28.0	6;	%AT1 0 solar
	3	0.0	0.0	0.0	-0.0	1.0	100.0	1	224.0	78.4	5.0	0	0	1100	224.0	0;	%BA1 0 CCGT
	3	0.0	0.0	0.0	-0.0	1.0	100.0	1	224.0	78.4	2.8	0	0	1100	224.0	1;	%BA1 0 OCGT
	3	0.0	0.0	0.0	-0.0	1.0	100.0	1	209.5	110.0	3.0	4	4	4	275.0	7;	%BA1 0 lignite
	3	0.0	0.0	0.0	-0.0	1.0	100.0	1	2.948512817829665	0.0	0.0	3	3	6100	38.0	4;	%BA1 0 onwind
	3	0.0	0.0	0.0	-0.0	1.0	100.0	1	1.7378841856398217	0.0	0.0	2	2	8200	28.0	6;	%BA1 0 solar
	4	0.0	0.0	0.0	-0.0	1.0	100.0	1	219.53809523809525	78.4	5.0	21	21	13800	224.0	0;	%BE1 0 CCGT
	4	0.0	0.0	0.0	-0.0	1.0	100.0	1	224.0	78.4	2.8	0	0	13800	224.0	1;	%BE1 0 OCGT
	4	0.0	0.0	0.0	-0.0	1.0	100.0	1	9.925925925925926	2.0436	2.8	27	27	27	10.0	8;	%BE1 0 biomass
	4	0.0	0.0	0.0	-0.0	1.0	100.0	1	19.222460323328725	0.0	0.0	137	137	180700	17.0	2;	%BE1 0 offwind
	4	0.0	0.0	0.0	-0.0	1.0	100.0	1	12.869211292014855	0.0	0.0	65	65	80900	38.0	4;	%BE1 0 onwind
	4	0.0	0.0	0.0	-0.0	1.0	100.0	1	14.132951529415852	0.0	3.5	4	4	4	26.0	5;	%BE1 0 ror
	4	0.0	0.0	0.0	-0.0	1.0	100.0	1	3.9592403012014508	0.0	0.0	202	202	109700	28.0	6;	%BE1 0 solar
	5	0.0	0.0	0.0	-0.0	1.0	100.0	1	224.0	78.4	5.0	0	0	5000	224.0	0;	%BG1 0 CCGT
	5	0.0	0.0	0.0	-0.0	1.0	100.0	1	224.0	78.4	2.8	0	0	5000	224.0	1;	%BG1 0 OCGT
	5	0.0	0.0	0.0	-0.0	1.0	100.0	1	160.41703044199232	89.375	3.0	1	1	1	275.0	9;	%BG1 0 coal
	5	0.0	0.0	0.0	-0.0	1.0	100.0	1	242.52278758367152	110.0	3.0	6	6	6	275.0	7;	%BG1 0 lignite
	5	0.0	0.0	0.0	-0.0	1.0	100.0	1	693.3333333333334	500.0	5.5	3	3	3	1000.0	10;	%BG1 0 nuclear
	5	0.0	0.0	0.0	-0.0	1.0	100.0	1	15.244691218235769	0.0	0.0	0	0	65700	17.0	2;	%BG1 0 offwind
	5	0.0	0.0	0.0	-0.0	1.0	100.0	1	11.281882883422265	0.0	0.0	19	19	29400	38.0	4;	%BG1 0 onwind
	5	0.0	0.0	0.0	-0.0	1.0	100.0	1	15.201670564005829	0.0	3.5	5	5	5	26.0	5;	%BG1 0 ror
	5	0.0	0.0	0.0	-0.0	1.0	100.0	1	1.589696822186914	0.0	0.0	39	39	39900	28.0	6;	%BG1 0 solar
	6	0.0	0.0	0.0	-0.0	1.0	100.0	1	224.0	78.4	5.0	0	0	9700	224.0	0;	%CH1 0 CCGT
	6	0.0	0.0	0.0	-0.0	1.0	100.0	1	224.0	78.4	2.8	0	0	9700	224.0	1;	%CH1 0 OCGT
	6	0.0	0.0	0.0	-0.0	1.0	100.0	1	9.861652941176471	2.0436	2.8	34	34	34	10.0	8;	%CH1 0 biomass
	6	0.0	0.0	0.0	-0.0	1.0	100.0	1	990.0	500.0	5.5	3	3	3	1000.0	10;	%CH1 0 nuclear
	6	0.0	0.0	0.0	-0.0	1.0	100.0	1	0.6311388740414776	0.0	0.0	3	3	56800	38.0	4;	%CH1 0 onwind
	6	0.0	0.0	0.0	-0.0	1.0	100.0	1	3.0618158291491038	0.0	3.5	171	171	171	26.0	5;	%CH1 0 ror
	6	0.0	0.0	0.0	-0.0	1.0	100.0	1	4.138051873954581	0.0	0.0	106	106	77100	28.0	6;	%CH1 0 solar
	7	0.0	0.0	0.0	-0.0	1.0	100.0	1	197.38	78.4	5.0	5	5	10200	224.0	0;	%CZ1 0 CCGT
	7	0.0	0.0	0.0	-0.0	1.0	100.0	1	224.0	78.4	2.8	0	0	10200	224.0	1;	%CZ1 0 OCGT
	7	0.0	0.0	0.0	-0.0	1.0	100.0	1	259.384773901276	110.0	3.0	14	14	14	275.0	7;	%CZ1 0 lignite
	7	0.0	0.0	0.0	-0.0	1.0	100.0	1	858.0	500.0	5.5	5	5	5	1000.0	10;	%CZ1 0 nuclear
	7	0.0	0.0	0.0	-0.0	1.0	100.0	1	9.3122902256979	0.0	0.0	9	9	59800	38.0	4;	%CZ1 0 onwind
	7	0.0	0.0	0.0	-0.0	1.0	100.0	1	10.424700783841924	0.0	3.5	2	2	2	26.0	5;	%CZ1 0 ror
	7	0.0	0.0	0.0	-0.0	1.0	100.0	1	2.0815485437164716	0.0	0.0	75	75	81200	28.0	6;	%CZ1 0 solar
	8	0.0	0.0	0.0	-0.0	1.0	100.0	1	223.36530288461537	78.4	5.0	104	104	160700	224.0	0;	%DE1 0 CCGT
	8	0.0	0.0	0.0	-0.0	1.0	100.0	1	78.4	78.4	2.8	1	1	160700	224.0	1;	%DE1 0 OCGT
	8	0.0	0.0	0.0	-0.0	1.0	100.0	1	9.993322844919787	2.0436	2.8	748	748	748	10.0	8;	%DE1 0 biomass
	8	0.0	0.0	0.0	-0.0	1.0	100.0	1	271.4126525154921	89.375	3.0	33	33	33	275.0	9;	%DE1 0 coal
	8	0.0	0.0	0.0	-0.0	1.0	100.0	1	272.8539328301224	110.0	3.0	77	77	77	275.0	7;	%DE1 0 lignite
	8	0.0	0.0	0.0	-0.0	1.0	100.0	1	27.17827400485896	0.0	0.0	456	456	2117500	17.0	2;	%DE1 0 offwind
	8	0.0	0.0	0.0	-0.0	1.0	100.0	1	48.949999999999996	0.0	2.8	18	18	18	50.0	3;	%DE1 0 oil
	8	0.0	0.0	0.0	-0.0	1.0	100.0	1	10.771565522516585	0.0	0.0	1431	1431	947300	38.0	4;	%DE1 0 onwind
	8	0.0	0.0	0.0	-0.0	1.0	100.0	1	23.761385321162894	0.0	3.5	99	99	99	26.0	5;	%DE1 0 ror
	8	0.0	0.0	0.0	-0.0	1.0	100.0	1	3.7648564671248086	0.0	0.0	1919	1919	1285600	28.0	6;	%DE1 0 solar
	9	0.0	0.0	0.0	-0.0	1.0	100.0	1	166.73333333333332	78.4	5.0	3	3	7200	224.0	0;	%DK1 0 CCGT
	9	0.0	0.0	0.0	-0.0	1.0	100.0	1	224.0	78.4	2.8	0	0	7200	224.0	1;	%DK1 0 OCGT
	9	0.0	0.0	0.0	-0.0	1.0	100.0	1	9.538461538461538	2.0436	2.8	13	13	13	10.0	8;	%DK1 0 biomass
	9	0.0	0.0	0.0	-0.0	1.0	100.0	1	231.37136217774997	89.375	3.0	5	5	5	275.0	9;	%DK1 0 coal
	9	0.0	0.0	0.0	-0.0	1.0	100.0	1	23.921623980504545	0.0	0.0	82	82	93900	17.0	2;	%DK1 0 offwind
	9	0.0	0.0	0.0	-0.0	1.0	100.0	1	20.33335433405553	0.0	0.0	100	100	42000	38.0	4;	%DK1 0 onwind
	9	0.0	0.0	0.0	-0.0	1.0	100.0	1	5.080256974938302	0.0	0.0	37	37	57000	28.0	6;	%DK1 0 solar
	10	0.0	0.0	0.0	-0.0	1.0	100.0	1	187.0	78.4	5.0	4	4	2000	224.0	0;	%DK2 0 CCGT
	10	0.0	0.0	0.0	-0.0	1.0	100.0	1	224.0	78.4	2.8	0	0	2000	224.0	1;	%DK2 0 OCGT
	10	0.0	0.0	0.0	-0.0	1.0	100.0	1	10.0	2.0436	2.8	7	7	7	10.0	8;	%DK2 0 biomass
	10	0.0	0.0	0.0	-0.0	1.0	100.0	1	22.946862258796273	0.0	0.0	19	19	25400	17.0	2;	%DK2 0 offwind
	10	0.0	0.0	0.0	-0.0	1.0	100.0	1	16.87950568966793	0.0	0.0	20	20	11400	38.0	4;	%DK2 0 onwind
	10	0.0	0.0	0.0	-0.0	1.0	100.0	1	3.7896124866511074	0.0	0.0	10	10	15500	28.0	6;	%DK2 0 solar
	11	0.0	0.0	0.0	-0.0	1.0	100.0	1	224.0	78.4	5.0	0	0	700	224.0	0;	%EE6 0 CCGT
	11	0.0	0.0	0.0	-0.0	1.0	100.0	1	224.0	78.4	2.8	0	0	700	224.0	1;	%EE6 0 OCGT
	11	0.0	0.0	0.0	-0.0	1.0	100.0	1	11.98156771818221	0.0	0.0	0	0	9300	17.0	2;	%EE6 0 offwind
	11	0.0	0.0	0.0	-0.0	1.0	100.0	1	6.702135523822488	0.0	0.0	9	9	4200	38.0	4;	%EE6 0 onwind
	11	0.0	0.0	0.0	-0.0	1.0	100.0	1	1.5041154193334592	0.0	0.0	5	5	5600	28.0	6;	%EE6 0 solar
	12	0.0	0.0	0.0	-0.0	1.0	100.0	1	223.20823762376236	78.4	5.0	101	101	63100	224.0	0;	%ES1 0 CCGT
	12	0.0	0.0	0.0	-0.0	1.0	100.0	1	224.0	78.4	2.8	0	0	63100	224.0	1;	%ES1 0 OCGT
	12	0.0	0.0	0.0	-0.0	1.0	100.0	1	242.28938995344714	89.375	3.0	8	8	8	275.0	9;	%ES1 0 coal
	12	0.0	0.0	0.0	-0.0	1.0	100.0	1	889.65	500.0	5.5	8	8	8	1000.0	10;	%ES1 0 nuclear
	12	0.0	0.0	0.0	-0.0	1.0	100.0	1	4.652486850992257	0.0	0.0	1	1	831300	17.0	2;	%ES1 0 offwind
	12	0.0	0.0	0.0	-0.0	1.0	100.0	1	45.29516666666667	0.0	2.8	6	6	6	50.0	3;	%ES1 0 oil
	12	0.0	0.0	0.0	-0.0	1.0	100.0	1	18.152263910622963	0.0	0.0	706	706	371900	38.0	4;	%ES1 0 onwind
	12	0.0	0.0	0.0	-0.0	1.0	100.0	1	22.86816191877097	0.0	3.5	11	11	11	26.0	5;	%ES1 0 ror
	12	0.0	0.0	0.0	-0.0	1.0	100.0	1	7.932822156710686	0.0	0.0	418	418	504800	28.0	6;	%ES1 0 solar
	13	0.0	0.0	0.0	-0.0	1.0	100.0	1	193.8	78.4	5.0	5	5	1400	224.0	0;	%ES4 0 CCGT
	13	0.0	0.0	0.0	-0.0	1.0	100.0	1	224.0	78.4	2.8	0	0	1400	224.0	1;	%ES4 0 OCGT
	13	0.0	0.0	0.0	-0.0	1.0	100.0	1	0.15088734381982125	0.0	0.0	1	1	18000	17.0	2;	%ES4 0 offwind
	13	0.0	0.0	0.0	-0.0	1.0	100.0	1	48.8	0.0	2.8	4	4	4	50.0	3;	%ES4 0 oil
	13	0.0	0.0	0.0	-0.0	1.0	100.0	1	21.469606308964767	0.0	0.0	7	7	8100	38.0	4;	%ES4 0 onwind
	13	0.0	0.0	0.0	-0.0	1.0	100.0	1	7.705202963114237	0.0	0.0	4	4	10900	28.0	6;	%ES4 0 solar
	14	0.0	0.0	0.0	-0.0	1.0	100.0	1	214.725	78.4	5.0	8	8	11400	224.0	0;	%FI2 0 CCGT
	14	0.0	0.0	0.0	-0.0	1.0	100.0	1	224.0	78.4	2.8	0	0	11400	224.0	1;	%FI2 0 OCGT
	14	0.0	0.0	0.0	-0.0	1.0	100.0	1	9.71875	2.0436	2.8	32	32	32	10.0	8;	%FI2 0 biomass
	14	0.0	0.0	0.0	-0.0	1.0	100.0	1	238.0441221846116	89.375	3.0	5	5	5	275.0	9;	%FI2 0 coal
	14	0.0	0.0	0.0	-0.0	1.0	100.0	1	872.4	500.0	5.5	5	5	5	1000.0	10;	%FI2 0 nuclear
	14	0.0	0.0	0.0	-0.0	1.0	100.0	1	7.218564990042407	0.0	0.0	5	5	149100	17.0	2;	%FI2 0 offwind
	14	0.0	0.0	0.0	-0.0	1.0	100.0	1	4.387435481470909	0.0	0.0	84	84	66700	38.0	4;	%FI2 0 onwind
	14	0.0	0.0	0.0	-0.0	1.0	100.0	1	11.20506835068735	0.0	3.5	56	56	56	26.0	5;	%FI2 0 ror
	14	0.0	0.0	0.0	-0.0	1.0	100.0	1	2.2367321113506105	0.0	0.0	14	14	90600	28.0	6;	%FI2 0 solar
	15	0.0	0.0	0.0	-0.0	1.0	100.0	1	218.42857142857142	78.4	5.0	28	28	74600	224.0	0;	%FR1 0 CCGT
	15	0.0	0.0	0.0	-0.0	1.0	100.0	1	224.0	78.4	2.8	0	0	74600	224.0	1;	%FR1 0 OCGT
	15	0.0	0.0	0.0	-0.0	1.0	100.0	1	9.940986538461537	2.0436	2.8	104	104	104	10.0	8;	%FR1 0 biomass
	15	0.0	0.0	0.0	-0.0	1.0	100.0	1	990.0	500.0	5.5	41	41	41	1000.0	10;	%FR1 0 nuclear
	15	0.0	0.0	0.0	-0.0	1.0	100.0	1	0.5431723434737019	0.0	0.0	1	1	982100	17.0	2;	%FR1 0 offwind
	15	0.0	0.0	0.0	-0.0	1.0	100.0	1	42.333333333333336	0.0	2.8	6	6	6	50.0	3;	%FR1 0 oil
	15	0.0	0.0	0.0	-0.0	1.0	100.0	1	10.025805519078952	0.0	0.0	452	452	439400	38.0	4;	%FR1 0 onwind
	15	0.0	0.0	0.0	-0.0	1.0	100.0	1	15.92429365935558	0.0	3.5	257	257	257	26.0	5;	%FR1 0 ror
	15	0.0	0.0	0.0	-0.0	1.0	100.0	1	6.046176296962058	0.0	0.0	417	417	596300	28.0	6;	%FR1 0 solar
	16	0.0	0.0	0.0	-0.0	1.0	100.0	1	223.36658709596236	78.4	5.0	137	137	81100	224.0	0;	%GB0 0 CCGT
	16	0.0	0.0	0.0	-0.0	1.0	100.0	1	224.0	78.4	2.8	0	0	81100	224.0	1;	%GB0 0 OCGT
	16	0.0	0.0	0.0	-0.0	1.0	100.0	1	9.998127925117004	2.0436	2.8	641	641	641	10.0	8;	%GB0 0 biomass
	16	0.0	0.0	0.0	-0.0	1.0	100.0	1	270.8333333333333	89.375	3.0	12	12	12	275.0	9;	%GB0 0 coal
	16	0.0	0.0	0.0	-0.0	1.0	100.0	1	918.1428571428571	500.0	5.5	7	7	7	1000.0	10;	%GB0 0 nuclear
	16	0.0	0.0	0.0	-0.0	1.0	100.0	1	15.067639540514588	0.0	0.0	570	570	1068200	17.0	2;	%GB0 0 offwind
	16	0.0	0.0	0.0	-0.0	1.0	100.0	1	17.046260783463936	0.0	0.0	343	343	477900	38.0	4;	%GB0 0 onwind
	16	0.0	0.0	0.0	-0.0	1.0	100.0	1	1.4781581953504583	0.0	3.5	339	339	339	26.0	5;	%GB0 0 ror
	16	0.0	0.0	0.0	-0.0	1.0	100.0	1	5.122343005384952	0.0	0.0	451	451	648600	28.0	6;	%GB0 0 solar
	17	0.0	0.0	0.0	-0.0	1.0	100.0	1	199.66666666666666	78.4	5.0	6	6	3500	224.0	0;	%GB5 0 CCGT
	17	0.0	0.0	0.0	-0.0	1.0	100.0	1	224.0	78.4	2.8	0	0	3500	224.0	1;	%GB5 0 OCGT
	17	0.0	0.0	0.0	-0.0	1.0	100.0	1	9.675	2.0436	2.8	4	4	4	10.0	8;	%GB5 0 biomass
	17	0.0	0.0	0.0	-0.0	1.0	100.0	1	14.224447389812363	0.0	0.0	42	42	45600	17.0	2;	%GB5 0 offwind
	17	0.0	0.0	0.0	-0.0	1.0	100.0	1	24.819739827726192	0.0	0.0	29	29	20400	38.0	4;	%GB5 0 onwind
	17	0.0	0.0	0.0	-0.0	1.0	100.0	1	5.539012493338557	0.0	0.0	31	31	27700	28.0	6;	%GB5 0 solar
	18	0.0	0.0	0.0	-0.0	1.0	100.0	1	219.4811754872973	78.4	5.0	19	19	11100	224.0	0;	%GR1 0 CCGT
	18	0.0	0.0	0.0	-0.0	1.0	100.0	1	224.0	78.4	2.8	0	0	11100	224.0	1;	%GR1 0 OCGT
	18	0.0	0.0	0.0	-0.0	1.0	100.0	1	220.0	110.0	3.0	3	3	3	275.0	7;	%GR1 0 lignite
	18	0.0	0.0	0.0	-0.0	1.0	100.0	1	18.036725881235295	0.0	0.0	0	0	145800	17.0	2;	%GR1 0 offwind
	18	0.0	0.0	0.0	-0.0	1.0	100.0	1	47.24311026765802	0.0	2.8	2	2	2	50.0	3;	%GR1 0 oil
	18	0.0	0.0	0.0	-0.0	1.0	100.0	1	13.033677357645416	0.0	0.0	109	109	65200	38.0	4;	%GR1 0 onwind
	18	0.0	0.0	0.0	-0.0	1.0	100.0	1	14.856545468761334	0.0	3.5	4	4	4	26.0	5;	%GR1 0 ror
	18	0.0	0.0	0.0	-0.0	1.0	100.0	1	2.6307241596956867	0.0	0.0	116	116	88500	28.0	6;	%GR1 0 solar
	19	0.0	0.0	0.0	-0.0	1.0	100.0	1	78.4	78.4	5.0	1	1	1400	224.0	0;	%HR1 0 CCGT
	19	0.0	0.0	0.0	-0.0	1.0	100.0	1	224.0	78.4	2.8	0	0	1400	224.0	1;	%HR1 0 OCGT
	19	0.0	0.0	0.0	-0.0	1.0	100.0	1	12.142876787326585	0.0	0.0	0	0	18300	17.0	2;	%HR1 0 offwind
	19	0.0	0.0	0.0	-0.0	1.0	100.0	1	5.8306999786989495	0.0	0.0	21	21	8200	38.0	4;	%HR1 0 onwind
	19	0.0	0.0	0.0	-0.0	1.0	100.0	1	24.833796198199718	0.0	3.5	11	11	11	26.0	5;	%HR1 0 ror
	19	0.0	0.0	0.0	-0.0	1.0	100.0	1	2.0497957984951123	0.0	0.0	4	4	11100	28.0	6;	%HR1 0 solar
	20	0.0	0.0	0.0	-0.0	1.0	100.0	1	215.52499999999998	78.4	5.0	8	8	5700	224.0	0;	%HU1 0 CCGT
	20	0.0	0.0	0.0	-0.0	1.0	100.0	1	224.0	78.4	2.8	0	0	5700	224.0	1;	%HU1 0 OCGT
	20	0.0	0.0	0.0	-0.0	1.0	100.0	1	230.4842391407936	89.375	3.0	1	1	1	275.0	9;	%HU1 0 coal
	20	0.0	0.0	0.0	-0.0	1.0	100.0	1	949.45	500.0	5.5	2	2	2	1000.0	10;	%HU1 0 nuclear
	20	0.0	0.0	0.0	-0.0	1.0	100.0	1	42.5	0.0	2.8	4	4	4	50.0	3;	%HU1 0 oil
	20	0.0	0.0	0.0	-0.0	1.0	100.0	1	9.444254614155538	0.0	0.0	9	9	33300	38.0	4;	%HU1 0 onwind
	20	0.0	0.0	0.0	-0.0	1.0	100.0	1	19.700024733143966	0.0	3.5	1	1	1	26.0	5;	%HU1 0 ror
	20	0.0	0.0	0.0	-0.0	1.0	100.0	1	2.004953865919734	0.0	0.0	70	70	45200	28.0	6;	%HU1 0 solar
	21	0.0	0.0	0.0	-0.0	1.0	100.0	1	222.05263157894737	78.4	5.0	19	19	8300	224.0	0;	%IE5 0 CCGT
	21	0.0	0.0	0.0	-0.0	1.0	100.0	1	224.0	78.4	2.8	0	0	8300	224.0	1;	%IE5 0 OCGT
	21	0.0	0.0	0.0	-0.0	1.0	100.0	1	253.0	110.0	3.0	1	1	1	275.0	7;	%IE5 0 lignite
	21	0.0	0.0	0.0	-0.0	1.0	100.0	1	17.564526602203703	0.0	0.0	2	2	108700	17.0	2;	%IE5 0 offwind
	21	0.0	0.0	0.0	-0.0	1.0	100.0	1	41.6	0.0	2.8	5	5	5	50.0	3;	%IE5 0 oil
	21	0.0	0.0	0.0	-0.0	1.0	100.0	1	23.398643578287817	0.0	0.0	113	113	48700	38.0	4;	%IE5 0 onwind
	21	0.0	0.0	0.0	-0.0	1.0	100.0	1	10.218069872441047	0.0	3.5	9	9	9	26.0	5;	%IE5 0 ror
	21	0.0	0.0	0.0	-0.0	1.0	100.0	1	5.0412723116774325	0.0	0.0	2	2	66000	28.0	6;	%IE5 0 solar
	22	0.0	0.0	0.0	-0.0	1.0	100.0	1	223.67257142857142	78.4	5.0	175	175	67800	224.0	0;	%IT1 0 CCGT
	22	0.0	0.0	0.0	-0.0	1.0	100.0	1	224.0	78.4	2.8	0	0	67800	224.0	1;	%IT1 0 OCGT
	22	0.0	0.0	0.0	-0.0	1.0	100.0	1	9.883645833333333	2.0436	2.8	48	48	48	10.0	8;	%IT1 0 biomass
	22	0.0	0.0	0.0	-0.0	1.0	100.0	1	59.0	0.0	2.8	1	1	1	59.0	11;	%IT1 0 geothermal
	22	0.0	0.0	0.0	-0.0	1.0	100.0	1	12.080806644235734	0.0	0.0	0	0	893000	17.0	2;	%IT1 0 offwind
	22	0.0	0.0	0.0	-0.0	1.0	100.0	1	9.253360149452202	0.0	0.0	229	229	399500	38.0	4;	%IT1 0 onwind
	22	0.0	0.0	0.0	-0.0	1.0	100.0	1	15.247982304795876	0.0	3.5	273	273	273	26.0	5;	%IT1 0 ror
	22	0.0	0.0	0.0	-0.0	1.0	100.0	1	4.7681860726620755	0.0	0.0	731	731	542200	28.0	6;	%IT1 0 solar
	23	0.0	0.0	0.0	-0.0	1.0	100.0	1	179.5	78.4	5.0	4	4	4100	224.0	0;	%IT3 0 CCGT
	23	0.0	0.0	0.0	-0.0	1.0	100.0	1	224.0	78.4	2.8	0	0	4100	224.0	1;	%IT3 0 OCGT
	23	0.0	0.0	0.0	-0.0	1.0	100.0	1	9.0	2.0436	2.8	4	4	4	10.0	8;	%IT3 0 biomass
	23	0.0	0.0	0.0	-0.0	1.0	100.0	1	13.61834114558216	0.0	0.0	0	0	53400	17.0	2;	%IT3 0 offwind
	23	0.0	0.0	0.0	-0.0	1.0	100.0	1	50.0	0.0	2.8	3	3	3	50.0	3;	%IT3 0 oil
	23	0.0	0.0	0.0	-0.0	1.0	100.0	1	24.317246525550015	0.0	0.0	63	63	23900	38.0	4;	%IT3 0 onwind
	23	0.0	0.0	0.0	-0.0	1.0	100.0	1	11.733892716161122	0.0	3.5	3	3	3	26.0	5;	%IT3 0 ror
	23	0.0	0.0	0.0	-0.0	1.0	100.0	1	5.150169841653568	0.0	0.0	43	43	32500	28.0	6;	%IT3 0 solar
	24	0.0	0.0	0.0	-0.0	1.0	100.0	1	209.0	78.4	5.0	5	5	1700	224.0	0;	%LT6 0 CCGT
	24	0.0	0.0	0.0	-0.0	1.0	100.0	1	224.0	78.4	2.8	0	0	1700	224.0	1;	%LT6 0 OCGT
	24	0.0	0.0	0.0	-0.0	1.0	100.0	1	20.927484970053065	0.0	0.0	0	0	21600	17.0	2;	%LT6 0 offwind
	24	0.0	0.0	0.0	-0.0	1.0	100.0	1	6.842267121744901	0.0	0.0	15	15	9700	38.0	4;	%LT6 0 onwind
	24	0.0	0.0	0.0	-0.0	1.0	100.0	1	23.71399915515213	0.0	3.5	4	4	4	26.0	5;	%LT6 0 ror
	24	0.0	0.0	0.0	-0.0	1.0	100.0	1	1.5208508315279203	0.0	0.0	6	6	13100	28.0	6;	%LT6 0 solar
	25	0.0	0.0	0.0	-0.0	1.0	100.0	1	224.0	78.4	5.0	0	0	600	224.0	0;	%LU1 0 CCGT
	25	0.0	0.0	0.0	-0.0	1.0	100.0	1	224.0	78.4	2.8	0	0	600	224.0	1;	%LU1 0 OCGT
	25	0.0	0.0	0.0	-0.0	1.0	100.0	1	7.3335	2.0436	2.8	1	1	1	10.0	8;	%LU1 0 biomass
	25	0.0	0.0	0.0	-0.0	1.0	100.0	1	7.591340678138908	0.0	0.0	7	7	3300	38.0	4;	%LU1 0 onwind
	25	0.0	0.0	0.0	-0.0	1.0	100.0	1	15.450178639373787	0.0	3.5	2	2	2	26.0	5;	%LU1 0 ror
	25	0.0	0.0	0.0	-0.0	1.0	100.0	1	3.189904649876303	0.0	0.0	10	10	4500	28.0	6;	%LU1 0 solar
	26	0.0	0.0	0.0	-0.0	1.0	100.0	1	207.8	78.4	5.0	5	5	2400	224.0	0;	%LV6 0 CCGT
	26	0.0	0.0	0.0	-0.0	1.0	100.0	1	224.0	78.4	2.8	0	0	2400	224.0	1;	%LV6 0 OCGT
	26	0.0	0.0	0.0	-0.0	1.0	100.0	1	17.744012802555545	0.0	0.0	0	0	31300	17.0	2;	%LV6 0 offwind
	26	0.0	0.0	0.0	-0.0	1.0	100.0	1	5.523282857319604	0.0	0.0	3	3	14100	38.0	4;	%LV6 0 onwind
	26	0.0	0.0	0.0	-0.0	1.0	100.0	1	7.529132568073837	0.0	3.5	60	60	60	26.0	5;	%LV6 0 ror
	26	0.0	0.0	0.0	-0.0	1.0	100.0	1	0.43317511940940334	0.0	0.0	1	1	19100	28.0	6;	%LV6 0 solar
	27	0.0	0.0	0.0	-0.0	1.0	100.0	1	224.0	78.4	5.0	0	0	400	224.0	0;	%ME1 0 CCGT
	27	0.0	0.0	0.0	-0.0	1.0	100.0	1	224.0	78.4	2.8	0	0	400	224.0	1;	%ME1 0 OCGT
	27	0.0	0.0	0.0	-0.0	1.0	100.0	1	207.4814722673996	110.0	3.0	1	1	1	275.0	7;	%ME1 0 lignite
	27	0.0	0.0	0.0	-0.0	1.0	100.0	1	3.401031764295908	0.0	0.0	0	0	4100	17.0	2;	%ME1 0 offwind
	27	0.0	0.0	0.0	-0.0	1.0	100.0	1	1.9115142758445829	0.0	0.0	4	4	1800	38.0	4;	%ME1 0 onwind
	27	0.0	0.0	0.0	-0.0	1.0	100.0	1	5.360187610635527	0.0	3.5	1	1	1	26.0	5;	%ME1 0 ror
	27	0.0	0.0	0.0	-0.0	1.0	100.0	1	0.5887861526655938	0.0	0.0	1	1	2500	28.0	6;	%ME1 0 solar
	28	0.0	0.0	0.0	-0.0	1.0	100.0	1	224.0	78.4	5.0	0	0	800	224.0	0;	%MK1 0 CCGT
	28	0.0	0.0	0.0	-0.0	1.0	100.0	1	224.0	78.4	2.8	0	0	800	224.0	1;	%MK1 0 OCGT
	28	0.0	0.0	0.0	-0.0	1.0	100.0	1	6.873152150758105	0.0	0.0	1	1	4500	38.0	4;	%MK1 0 onwind
	28	0.0	0.0	0.0	-0.0	1.0	100.0	1	2.0013648181664596	0.0	0.0	4	4	6000	28.0	6;	%MK1 0 solar
	29	0.0	0.0	0.0	-0.0	1.0	100.0	1	222.38863636363638	78.4	5.0	44	44	27800	224.0	0;	%NL1 0 CCGT
	29	0.0	0.0	0.0	-0.0	1.0	100.0	1	224.0	78.4	2.8	0	0	27800	224.0	1;	%NL1 0 OCGT
...
];

%% generator cost data
%	2	startup	shutdown	n	c(n-1)	...	c0	investment
mpc.gencost = [
	2	274162.0965517242	109664.83862068968	3	0.0	1398.7862068965521	0.0	0.0	91159.77271917595;	%AL1 0 CCGT
	2	377668.09756097564	151067.23902439026	3	0.0	1926.878048780488	0.0	0.0	41512.51602487989;	%AL1 0 OCGT
	2	0.0	0.0	3	0.0	0.54	0.0	0.0	12921.272323873265;	%AL1 0 offwind
	2	0.0	0.0	3	0.0	5358.857142857143	0.0	0.0	7781.672754798966;	%AL1 0 oil
	2	0.0	0.0	3	0.0	0.54	0.0	0.0	15005.193471611174;	%AL1 0 onwind
	2	0.0	0.0	3	0.0	0.0	0.0	0.0	31962.928143123157;	%AL1 0 ror
	2	0.0	0.0	3	0.0	0.35999999999999993	0.0	0.0	4096.676691067909;	%AL1 0 solar
	2	272827.14093368605	109130.85637347442	3	0.0	1391.9752088453367	0.0	0.0	91159.77271917593;	%AT1 0 CCGT
	2	377668.09756097564	151067.23902439026	3	0.0	1926.878048780488	0.0	0.0	41512.51602487989;	%AT1 0 OCGT
	2	0.0	0.0	3	0.0	0.5399999999999999	0.0	0.0	15005.193471611174;	%AT1 0 onwind
	2	0.0	0.0	3	0.0	0.0	0.0	0.0	31962.928143123157;	%AT1 0 ror
	2	0.0	0.0	3	0.0	0.3600000000000001	0.0	0.0	4096.67669106791;	%AT1 0 solar
	2	274162.0965517242	109664.83862068968	3	0.0	1398.7862068965521	0.0	0.0	91159.77271917595;	%BA1 0 CCGT
	2	377668.09756097564	151067.23902439026	3	0.0	1926.878048780488	0.0	0.0	41512.51602487989;	%BA1 0 OCGT
	2	121649.99999999997	48659.99999999999	3	0.0	442.3636363636363	0.0	0.0	395521.4475953866;	%BA1 0 lignite
	2	0.0	0.0	3	0.0	0.54	0.0	0.0	15005.193471611174;	%BA1 0 onwind
	2	0.0	0.0	3	0.0	0.3600000000000001	0.0	0.0	4096.67669106791;	%BA1 0 solar
	2	324131.79167886265	129652.71667154506	3	0.0	1653.7336310146052	0.0	0.0	91159.77271917595;	%BE1 0 CCGT
	2	377668.0975609757	151067.2390243903	3	0.0	1926.8780487804884	0.0	0.0	41512.51602487989;	%BE1 0 OCGT
	2	2739.2936170212765	1095.7174468085107	3	0.0	536.1702127659576	0.0	0.0	11428.071179015531;	%BE1 0 biomass
	2	0.0	0.0	3	0.0	0.54	0.0	0.0	13400.486962713048;	%BE1 0 offwind
	2	0.0	0.0	3	0.0	0.54	0.0	0.0	15005.193471611174;	%BE1 0 onwind
	2	0.0	0.0	3	0.0	0.0	0.0	0.0	31962.928143123157;	%BE1 0 ror
	2	0.0	0.0	3	0.0	0.3600000000000001	0.0	0.0	4096.676691067909;	%BE1 0 solar
	2	274162.0965517242	109664.83862068968	3	0.0	1398.7862068965521	0.0	0.0	91159.77271917593;	%BG1 0 CCGT
	2	377668.09756097564	151067.23902439026	3	0.0	1926.8780487804877	0.0	0.0	41512.51602487989;	%BG1 0 OCGT
	2	226809.37499999997	90723.75	3	0.0	1015.090909090909	0.0	0.0	395521.4475953866;	%BG1 0 coal
	2	121649.99999999996	48659.999999999985	3	0.0	442.36363636363626	0.0	0.0	395521.44759538653;	%BG1 0 lignite
	2	512045.45454545453	204818.1818181818	3	0.0	409.6363636363636	0.0	0.0	2904545.0004203795;	%BG1 0 nuclear
	2	0.0	0.0	3	0.0	0.54	0.0	0.0	13612.738794015802;	%BG1 0 offwind
	2	0.0	0.0	3	0.0	0.5399999999999999	0.0	0.0	15005.193471611174;	%BG1 0 onwind
	2	0.0	0.0	3	0.0	0.0	0.0	0.0	31962.928143123157;	%BG1 0 ror
	2	0.0	0.0	3	0.0	0.35999999999999993	0.0	0.0	4096.676691067909;	%BG1 0 solar
	2	274162.0965517242	109664.83862068967	3	0.0	1398.786206896552	0.0	0.0	91159.77271917593;	%CH1 0 CCGT
	2	377668.09756097564	151067.23902439026	3	0.0	1926.8780487804877	0.0	0.0	41512.516024879886;	%CH1 0 OCGT
	2	2739.2936170212765	1095.7174468085107	3	0.0	536.1702127659576	0.0	0.0	11428.071179015531;	%CH1 0 biomass
	2	512045.45454545453	204818.1818181818	3	0.0	409.6363636363636	0.0	0.0	2904545.0004203795;	%CH1 0 nuclear
	2	0.0	0.0	3	0.0	0.5399999999999999	0.0	0.0	15005.193471611174;	%CH1 0 onwind
	2	0.0	0.0	3	0.0	0.0	0.0	0.0	31962.928143123157;	%CH1 0 ror
	2	0.0	0.0	3	0.0	0.36	0.0	0.0	4096.676691067909;	%CH1 0 solar
	2	274162.0965517242	109664.83862068968	3	0.0	1398.7862068965521	0.0	0.0	91159.77271917595;	%CZ1 0 CCGT
	2	377668.09756097564	151067.23902439026	3	0.0	1926.878048780488	0.0	0.0	41512.51602487989;	%CZ1 0 OCGT
	2	121649.99999999997	48659.99999999999	3	0.0	442.3636363636363	0.0	0.0	395521.44759538665;	%CZ1 0 lignite
	2	512045.45454545453	204818.1818181818	3	0.0	409.6363636363636	0.0	0.0	2904545.0004203795;	%CZ1 0 nuclear
	2	0.0	0.0	3	0.0	0.54	0.0	0.0	15005.193471611174;	%CZ1 0 onwind
	2	0.0	0.0	3	0.0	0.0	0.0	0.0	31962.928143123157;	%CZ1 0 ror
	2	0.0	0.0	3	0.0	0.35999999999999993	0.0	0.0	4096.676691067909;	%CZ1 0 solar
	2	310938.76180552493	124375.50472220997	3	0.0	1586.4222541098209	0.0	0.0	91159.77271917595;	%DE1 0 CCGT
	2	344876.0349717854	137950.41398871416	3	0.0	1759.571606998905	0.0	0.0	41512.51602487989;	%DE1 0 OCGT
	2	2739.2936170212765	1095.7174468085107	3	0.0	536.1702127659574	0.0	0.0	11428.071179015531;	%DE1 0 biomass
	2	226774.08793023744	90709.63517209498	3	0.0	1014.9329809465172	0.0	0.0	395521.4475953866;	%DE1 0 coal
	2	110836.04704459876	44334.418817839505	3	0.0	403.0401710712682	0.0	0.0	395521.4475953866;	%DE1 0 lignite
	2	0.0	0.0	3	0.0	0.54	0.0	0.0	14824.427334298836;	%DE1 0 offwind
	2	0.0	0.0	3	0.0	4975.666694711599	0.0	0.0	7781.672754798966;	%DE1 0 oil
	2	0.0	0.0	3	0.0	0.54	0.0	0.0	15005.193471611174;	%DE1 0 onwind
	2	0.0	0.0	3	0.0	0.0	0.0	0.0	31962.928143123157;	%DE1 0 ror
	2	0.0	0.0	3	0.0	0.35999999999999993	0.0	0.0	4096.676691067909;	%DE1 0 solar
	2	309359.89053757815	123743.95621503126	3	0.0	1578.3667884570311	0.0	0.0	91159.77271917595;	%DK1 0 CCGT
	2	377668.09756097564	151067.23902439026	3	0.0	1926.878048780488	0.0	0.0	41512.51602487989;	%DK1 0 OCGT
	2	2739.2936170212765	1095.7174468085107	3	0.0	536.1702127659576	0.0	0.0	11428.071179015531;	%DK1 0 biomass
	2	226809.37499999994	90723.74999999997	3	0.0	1015.0909090909089	0.0	0.0	395521.4475953866;	%DK1 0 coal
	2	0.0	0.0	3	0.0	0.54	0.0	0.0	14313.602240731885;	%DK1 0 offwind
	2	0.0	0.0	3	0.0	0.54	0.0	0.0	15005.193471611174;	%DK1 0 onwind
	2	0.0	0.0	3	0.0	0.3600000000000001	0.0	0.0	4096.67669106791;	%DK1 0 solar
	2	274162.0965517242	109664.83862068968	3	0.0	1398.7862068965521	0.0	0.0	91159.77271917595;	%DK2 0 CCGT
	2	377668.09756097564	151067.23902439026	3	0.0	1926.878048780488	0.0	0.0	41512.51602487989;	%DK2 0 OCGT
	2	2739.2936170212765	1095.7174468085107	3	0.0	536.1702127659576	0.0	0.0	11428.071179015531;	%DK2 0 biomass
	2	0.0	0.0	3	0.0	0.54	0.0	0.0	13975.452864792554;	%DK2 0 offwind
	2	0.0	0.0	3	0.0	0.5399999999999999	0.0	0.0	15005.193471611174;	%DK2 0 onwind
	2	0.0	0.0	3	0.0	0.3600000000000001	0.0	0.0	4096.67669106791;	%DK2 0 solar
	2	274162.0965517242	109664.83862068968	3	0.0	1398.7862068965521	0.0	0.0	91159.77271917595;	%EE6 0 CCGT
	2	377668.09756097564	151067.23902439026	3	0.0	1926.878048780488	0.0	0.0	41512.51602487989;	%EE6 0 OCGT
	2	0.0	0.0	3	0.0	0.54	0.0	0.0	14187.397274340208;	%EE6 0 offwind
	2	0.0	0.0	3	0.0	0.5399999999999998	0.0	0.0	15005.193471611174;	%EE6 0 onwind
	2	0.0	0.0	3	0.0	0.36	0.0	0.0	4096.676691067909;	%EE6 0 solar
	2	317294.2031460017	126917.68125840067	3	0.0	1618.8479752347023	0.0	0.0	91159.77271917595;	%ES1 0 CCGT
	2	377668.0975609757	151067.2390243903	3	0.0	1926.8780487804884	0.0	0.0	41512.51602487989;	%ES1 0 OCGT
	2	226809.37500000006	90723.75000000001	3	0.0	1015.0909090909091	0.0	0.0	395521.44759538665;	%ES1 0 coal
	2	512045.45454545453	204818.1818181818	3	0.0	409.6363636363636	0.0	0.0	2904545.0004203795;	%ES1 0 nuclear
	2	0.0	0.0	3	0.0	0.54	0.0	0.0	13973.269585792632;	%ES1 0 offwind
	2	0.0	0.0	3	0.0	5358.857142857143	0.0	0.0	7781.672754798966;	%ES1 0 oil
	2	0.0	0.0	3	0.0	0.54	0.0	0.0	15005.193471611175;	%ES1 0 onwind
	2	0.0	0.0	3	0.0	0.0	0.0	0.0	31962.928143123157;	%ES1 0 ror
	2	0.0	0.0	3	0.0	0.3600000000000001	0.0	0.0	4096.676691067909;	%ES1 0 solar
	2	274162.0965517242	109664.83862068968	3	0.0	1398.7862068965521	0.0	0.0	91159.77271917595;	%ES4 0 CCGT
	2	377668.09756097564	151067.23902439026	3	0.0	1926.878048780488	0.0	0.0	41512.51602487989;	%ES4 0 OCGT
	2	0.0	0.0	3	0.0	0.54	0.0	0.0	13767.277746198908;	%ES4 0 offwind
	2	0.0	0.0	3	0.0	5358.857142857143	0.0	0.0	7781.672754798966;	%ES4 0 oil
	2	0.0	0.0	3	0.0	0.54	0.0	0.0	15005.193471611175;	%ES4 0 onwind
	2	0.0	0.0	3	0.0	0.36	0.0	0.0	4096.676691067909;	%ES4 0 solar
	2	249029.88558087352	99611.95423234941	3	0.0	1270.5606407187424	0.0	0.0	91159.77271917595;	%FI2 0 CCGT
	2	377668.09756097564	151067.23902439026	3	0.0	1926.878048780488	0.0	0.0	41512.51602487989;	%FI2 0 OCGT
	2	2739.2936170212765	1095.7174468085107	3	0.0	536.1702127659576	0.0	0.0	11428.071179015531;	%FI2 0 biomass
	2	226809.37499999997	90723.75	3	0.0	1015.090909090909	0.0	0.0	395521.4475953866;	%FI2 0 coal
	2	512045.45454545453	204818.1818181818	3	0.0	409.6363636363636	0.0	0.0	2904545.0004203795;	%FI2 0 nuclear
	2	0.0	0.0	3	0.0	0.54	0.0	0.0	14093.253077232119;	%FI2 0 offwind
	2	0.0	0.0	3	0.0	0.54	0.0	0.0	15005.193471611175;	%FI2 0 onwind
	2	0.0	0.0	3	0.0	0.0	0.0	0.0	31962.928143123157;	%FI2 0 ror
	2	0.0	0.0	3	0.0	0.3600000000000001	0.0	0.0	4096.67669106791;	%FI2 0 solar
	2	283576.47532905673	113430.59013162268	3	0.0	1446.8187516788605	0.0	0.0	91159.77271917595;	%FR1 0 CCGT
	2	377668.0975609757	151067.2390243903	3	0.0	1926.8780487804884	0.0	0.0	41512.51602487989;	%FR1 0 OCGT
	2	2739.2936170212765	1095.7174468085107	3	0.0	536.1702127659576	0.0	0.0	11428.071179015531;	%FR1 0 biomass
	2	512045.45454545453	204818.1818181818	3	0.0	409.6363636363636	0.0	0.0	2904545.0004203795;	%FR1 0 nuclear
	2	0.0	0.0	3	0.0	0.5399999999999999	0.0	0.0	13695.52314140495;	%FR1 0 offwind
	2	0.0	0.0	3	0.0	5358.857142857143	0.0	0.0	7781.672754798966;	%FR1 0 oil
	2	0.0	0.0	3	0.0	0.54	0.0	0.0	15005.193471611175;	%FR1 0 onwind
	2	0.0	0.0	3	0.0	0.0	0.0	0.0	31962.928143123157;	%FR1 0 ror
	2	0.0	0.0	3	0.0	0.3600000000000001	0.0	0.0	4096.67669106791;	%FR1 0 solar
	2	274811.52707099065	109924.61082839624	3	0.0	1402.0996279132173	0.0	0.0	91159.77271917595;	%GB0 0 CCGT
	2	377668.09756097564	151067.23902439026	3	0.0	1926.8780487804877	0.0	0.0	41512.516024879886;	%GB0 0 OCGT
	2	2739.293617021278	1095.717446808511	3	0.0	536.1702127659577	0.0	0.0	11428.071179015531;	%GB0 0 biomass
	2	226809.37499999997	90723.75	3	0.0	1015.090909090909	0.0	0.0	395521.4475953866;	%GB0 0 coal
	2	512045.45454545453	204818.1818181818	3	0.0	409.6363636363636	0.0	0.0	2904545.0004203795;	%GB0 0 nuclear
	2	0.0	0.0	3	0.0	0.54	0.0	0.0	14278.633826138179;	%GB0 0 offwind
	2	0.0	0.0	3	0.0	0.54	0.0	0.0	15005.193471611174;	%GB0 0 onwind
	2	0.0	0.0	3	0.0	0.0	0.0	0.0	31962.928143123157;	%GB0 0 ror
	2	0.0	0.0	3	0.0	0.36	0.0	0.0	4096.676691067909;	%GB0 0 solar
	2	274162.0965517242	109664.83862068968	3	0.0	1398.7862068965521	0.0	0.0	91159.77271917595;	%GB5 0 CCGT
	2	377668.09756097564	151067.23902439026	3	0.0	1926.8780487804877	0.0	0.0	41512.51602487989;	%GB5 0 OCGT
	2	2739.2936170212765	1095.7174468085107	3	0.0	536.1702127659576	0.0	0.0	11428.071179015531;	%GB5 0 biomass
	2	0.0	0.0	3	0.0	0.54	0.0	0.0	14885.568440323517;	%GB5 0 offwind
	2	0.0	0.0	3	0.0	0.54	0.0	0.0	15005.193471611174;	%GB5 0 onwind
	2	0.0	0.0	3	0.0	0.36	0.0	0.0	4096.676691067909;	%GB5 0 solar
	2	287703.4595997996	115081.38383991984	3	0.0	1467.8747938765284	0.0	0.0	91159.77271917595;	%GR1 0 CCGT
	2	377668.09756097564	151067.23902439026	3	0.0	1926.8780487804877	0.0	0.0	41512.516024879886;	%GR1 0 OCGT
	2	121649.99999999997	48659.99999999999	3	0.0	442.3636363636363	0.0	0.0	395521.4475953866;	%GR1 0 lignite
	2	0.0	0.0	3	0.0	0.54	0.0	0.0	14620.734226251836;	%GR1 0 offwind
	2	0.0	0.0	3	0.0	5358.857142857143	0.0	0.0	7781.672754798966;	%GR1 0 oil
	2	0.0	0.0	3	0.0	0.54	0.0	0.0	15005.193471611174;	%GR1 0 onwind
	2	0.0	0.0	3	0.0	0.0	0.0	0.0	31962.928143123165;	%GR1 0 ror
	2	0.0	0.0	3	0.0	0.35999999999999993	0.0	0.0	4096.676691067909;	%GR1 0 solar
	2	274162.0965517242	109664.83862068968	3	0.0	1398.7862068965521	0.0	0.0	91159.77271917595;	%HR1 0 CCGT
	2	377668.09756097564	151067.23902439026	3	0.0	1926.878048780488	0.0	0.0	41512.51602487989;	%HR1 0 OCGT
	2	0.0	0.0	3	0.0	0.54	0.0	0.0	13759.545912669124;	%HR1 0 offwind
	2	0.0	0.0	3	0.0	0.54	0.0	0.0	15005.193471611174;	%HR1 0 onwind
	2	0.0	0.0	3	0.0	0.0	0.0	0.0	31962.928143123157;	%HR1 0 ror
	2	0.0	0.0	3	0.0	0.36	0.0	0.0	4096.676691067909;	%HR1 0 solar
	2	273136.66226464673	109254.66490585869	3	0.0	1393.554399309422	0.0	0.0	91159.77271917595;	%HU1 0 CCGT
	2	377668.09756097564	151067.23902439026	3	0.0	1926.8780487804877	0.0	0.0	41512.516024879886;	%HU1 0 OCGT
	2	226809.37499999997	90723.75	3	0.0	1015.090909090909	0.0	0.0	395521.4475953866;	%HU1 0 coal
	2	512045.45454545453	204818.1818181818	3	0.0	409.6363636363636	0.0	0.0	2904545.0004203795;	%HU1 0 nuclear
	2	0.0	0.0	3	0.0	5358.857142857143	0.0	0.0	7781.672754798966;	%HU1 0 oil
	2	0.0	0.0	3	0.0	0.5399999999999999	0.0	0.0	15005.193471611174;	%HU1 0 onwind
	2	0.0	0.0	3	0.0	0.0	0.0	0.0	31962.928143123157;	%HU1 0 ror
	2	0.0	0.0	3	0.0	0.36	0.0	0.0	4096.676691067909;	%HU1 0 solar
	2	327121.0579459528	130848.42317838111	3	0.0	1668.9849895201671	0.0	0.0	91159.77271917593;	%IE5 0 CCGT
	2	377668.0975609757	151067.2390243903	3	0.0	1926.8780487804884	0.0	0.0	41512.51602487989;	%IE5 0 OCGT
	2	121650.00000000001	48660.0	3	0.0	442.3636363636364	0.0	0.0	395521.44759538665;	%IE5 0 lignite
	2	0.0	0.0	3	0.0	0.54	0.0	0.0	14323.575570237957;	%IE5 0 offwind
	2	0.0	0.0	3	0.0	5358.857142857143	0.0	0.0	7781.672754798966;	%IE5 0 oil
	2	0.0	0.0	3	0.0	0.54	0.0	0.0	15005.193471611175;	%IE5 0 onwind
	2	0.0	0.0	3	0.0	0.0	0.0	0.0	31962.928143123157;	%IE5 0 ror
	2	0.0	0.0	3	0.0	0.36	0.0	0.0	4096.676691067909;	%IE5 0 solar
	2	329436.4878634763	131774.5951453905	3	0.0	1680.7984074667158	0.0	0.0	91159.77271917595;	%IT1 0 CCGT
	2	377668.09756097564	151067.23902439026	3	0.0	1926.8780487804877	0.0	0.0	41512.516024879886;	%IT1 0 OCGT
	2	2739.293617021277	1095.7174468085109	3	0.0	536.1702127659576	0.0	0.0	11428.071179015531;	%IT1 0 biomass
	2	0.0	0.0	3	0.0	0.0	0.0	0.0	81100.47840204611;	%IT1 0 geothermal
	2	0.0	0.0	3	0.0	0.54	0.0	0.0	13698.6162617939;	%IT1 0 offwind
	2	0.0	0.0	3	0.0	0.5399999999999999	0.0	0.0	15005.193471611174;	%IT1 0 onwind
	2	0.0	0.0	3	0.0	0.0	0.0	0.0	31962.928143123157;	%IT1 0 ror
	2	0.0	0.0	3	0.0	0.36	0.0	0.0	4096.676691067909;	%IT1 0 solar
	2	274162.0965517242	109664.83862068968	3	0.0	1398.7862068965521	0.0	0.0	91159.77271917595;	%IT3 0 CCGT
	2	377668.09756097564	151067.23902439026	3	0.0	1926.878048780488	0.0	0.0	41512.51602487989;	%IT3 0 OCGT
	2	2739.2936170212765	1095.7174468085107	3	0.0	536.1702127659576	0.0	0.0	11428.071179015531;	%IT3 0 biomass
	2	0.0	0.0	3	0.0	0.5399999999999999	0.0	0.0	12930.758708672094;	%IT3 0 offwind
	2	0.0	0.0	3	0.0	5358.857142857143	0.0	0.0	7781.672754798966;	%IT3 0 oil
	2	0.0	0.0	3	0.0	0.54	0.0	0.0	15005.193471611174;	%IT3 0 onwind
	2	0.0	0.0	3	0.0	0.0	0.0	0.0	31962.928143123157;	%IT3 0 ror
	2	0.0	0.0	3	0.0	0.36	0.0	0.0	4096.676691067909;	%IT3 0 solar
	2	274162.0965517242	109664.83862068968	3	0.0	1398.7862068965521	0.0	0.0	91159.77271917595;	%LT6 0 CCGT
	2	377668.09756097564	151067.23902439026	3	0.0	1926.878048780488	0.0	0.0	41512.51602487989;	%LT6 0 OCGT
	2	0.0	0.0	3	0.0	0.54	0.0	0.0	13686.702117154198;	%LT6 0 offwind
	2	0.0	0.0	3	0.0	0.5399999999999998	0.0	0.0	15005.193471611174;	%LT6 0 onwind
	2	0.0	0.0	3	0.0	0.0	0.0	0.0	31962.928143123157;	%LT6 0 ror
	2	0.0	0.0	3	0.0	0.3600000000000001	0.0	0.0	4096.67669106791;	%LT6 0 solar
	2	274162.0965517242	109664.83862068968	3	0.0	1398.7862068965521	0.0	0.0	91159.77271917595;	%LU1 0 CCGT
	2	377668.09756097564	151067.23902439026	3	0.0	1926.878048780488	0.0	0.0	41512.51602487989;	%LU1 0 OCGT
	2	2739.2936170212765	1095.7174468085107	3	0.0	536.1702127659576	0.0	0.0	11428.071179015531;	%LU1 0 biomass
	2	0.0	0.0	3	0.0	0.54	0.0	0.0	15005.193471611174;	%LU1 0 onwind
	2	0.0	0.0	3	0.0	0.0	0.0	0.0	31962.928143123157;	%LU1 0 ror
	2	0.0	0.0	3	0.0	0.36	0.0	0.0	4096.676691067909;	%LU1 0 solar
	2	274162.0965517242	109664.83862068968	3	0.0	1398.7862068965521	0.0	0.0	91159.77271917595;	%LV6 0 CCGT
	2	377668.09756097564	151067.23902439026	3	0.0	1926.878048780488	0.0	0.0	41512.51602487989;	%LV6 0 OCGT
	2	0.0	0.0	3	0.0	0.54	0.0	0.0	13885.885694142547;	%LV6 0 offwind
	2	0.0	0.0	3	0.0	0.5399999999999999	0.0	0.0	15005.193471611174;	%LV6 0 onwind
	2	0.0	0.0	3	0.0	0.0	0.0	0.0	31962.928143123157;	%LV6 0 ror
	2	0.0	0.0	3	0.0	0.3600000000000001	0.0	0.0	4096.676691067909;	%LV6 0 solar
	2	274162.0965517242	109664.83862068968	3	0.0	1398.7862068965521	0.0	0.0	91159.77271917595;	%ME1 0 CCGT
	2	377668.09756097564	151067.23902439026	3	0.0	1926.878048780488	0.0	0.0	41512.51602487989;	%ME1 0 OCGT
	2	121649.99999999997	48659.99999999999	3	0.0	442.3636363636363	0.0	0.0	395521.4475953866;	%ME1 0 lignite
	2	0.0	0.0	3	0.0	0.5399999999999999	0.0	0.0	13197.850735140595;	%ME1 0 offwind
	2	0.0	0.0	3	0.0	0.54	0.0	0.0	15005.193471611174;	%ME1 0 onwind
	2	0.0	0.0	3	0.0	0.0	0.0	0.0	31962.928143123157;	%ME1 0 ror
	2	0.0	0.0	3	0.0	0.36	0.0	0.0	4096.676691067909;	%ME1 0 solar
	2	274162.0965517242	109664.83862068968	3	0.0	1398.7862068965521	0.0	0.0	91159.77271917595;	%MK1 0 CCGT
	2	377668.09756097564	151067.23902439026	3	0.0	1926.878048780488	0.0	0.0	41512.51602487989;	%MK1 0 OCGT
	2	0.0	0.0	3	0.0	0.54	0.0	0.0	15005.193471611174;	%MK1 0 onwind
	2	0.0	0.0	3	0.0	0.35999999999999993	0.0	0.0	4096.676691067909;	%MK1 0 solar
	2	333541.4305519068	133416.57222076273	3	0.0	1701.741992611769	0.0	0.0	91159.77271917595;	%NL1 0 CCGT
	2	377668.09756097564	151067.23902439026	3	0.0	1926.878048780488	0.0	0.0	41512.51602487989;	%NL1 0 OCGT
...
];
%% branch data
%	fbus	tbus	r	x	b	rateA	rateB	rateC	ratio	angle	status	angmin	angmax
mpc.branch = [
	1	18	0.009848253769131014	0.08075568090687432	2.055105533175459e-05	1698.1026117405274	1698.1026117405274	1698.1026117405274	0	0	1	-60	60;	%AL1 0 - GR1 0
	1	27	0.0030025768781929826	0.02462113040118246	1.0418231424248789e-05	2189.658630928575	2189.658630928575	2189.658630928575	0	0	1	-60	60;	%AL1 0 - ME1 0
	3	19	0.0018083930284160529	0.014828822833011634	3.763249569104315e-05	5362.429300233244	5362.429300233244	5362.429300233244	0	0	1	-60	60;	%BA1 0 - HR1 0
	3	27	0.0022858595658064302	0.018744048439612727	1.1892132809188925e-05	2681.214650116622	2681.214650116622	2681.214650116622	0	0	1	-60	60;	%BA1 0 - ME1 0
	3	34	0.004149698224123457	0.03402752543781235	1.439847111116458e-05	2189.658630928575	2189.658630928575	2189.658630928575	0	0	1	-60	60;	%BA1 0 - RS1 0
	4	15	0.0021392377588853096	0.01754174962285954	0.00013894357908419004	9473.625097078731	9473.625097078731	9473.625097078731	0	0	1	-60	60;	%BE1 0 - FR1 0
	4	25	0.007463517643991826	0.06120084468073299	5.220314041075356e-06	983.1120383760948	983.1120383760948	983.1120383760948	0	0	1	-60	60;	%BE1 0 - LU1 0
	4	29	0.0011984220022508625	0.009827060418457071	4.001332614924733e-05	6792.41044696211	6792.41044696211	6792.41044696211	0	0	1	-60	60;	%BE1 0 - NL1 0
	5	18	0.011809656492733411	0.09683918324041399	2.4644054643668527e-05	1698.1026117405274	1698.1026117405274	1698.1026117405274	0	0	1	-60	60;	%BG1 0 - GR1 0
	5	28	0.0074365203689532805	0.0609794670254169	1.5518318796486916e-05	1698.1026117405274	1698.1026117405274	1698.1026117405274	0	0	1	-60	60;	%BG1 0 - MK1 0
	5	33	0.0020229105724174743	0.016587866693823287	6.754163420971416e-05	6792.41044696211	6792.41044696211	6792.41044696211	0	0	1	-60	60;	%BG1 0 - RO1 0
	5	34	0.009266320797298841	0.07598383053785052	1.9336694188768876e-05	1698.1026117405274	1698.1026117405274	1698.1026117405274	0	0	1	-60	60;	%BG1 0 - RS1 0
	1	28	0.003649247216798554	0.02992382717774814	7.615145103871138e-06	1698.1026117405274	1698.1026117405274	1698.1026117405274	0	0	1	-60	60;	%AL1 0 - MK1 0
	6	8	0.0007631703989934744	0.006257997271746491	0.00040769593381994505	27169.64178784844	27169.64178784844	27169.64178784844	0	0	1	-60	60;	%CH1 0 - DE1 0
	6	15	0.001746686959247153	0.014322833065826655	0.00011995981004979816	9741.746562090395	9741.746562090395	9741.746562090395	0	0	1	-60	60;	%CH1 0 - FR1 0
	6	22	0.0024168599665192895	0.019818251725458175	0.00011953708173841214	8267.078504526253	8267.078504526253	8267.078504526253	0	0	1	-60	60;	%CH1 0 - IT1 0
	7	8	0.002780890333632855	0.022803300735789414	9.284932327339585e-05	6792.41044696211	6792.41044696211	6792.41044696211	0	0	1	-60	60;	%CZ1 0 - DE1 0
	7	31	0.003347784363454365	0.02745183178032579	4.6464078918691116e-05	4379.31726185715	4379.31726185715	4379.31726185715	0	0	1	-60	60;	%CZ1 0 - PL1 0
	7	37	0.0022035110440118957	0.018068790560897545	5.889802779608092e-05	6077.419873597678	6077.419873597678	6077.419873597678	0	0	1	-60	60;	%CZ1 0 - SK1 0
	8	9	0.0055751311403673546	0.04571607535101231	7.737754441889767e-05	4379.31726185715	4379.31726185715	4379.31726185715	0	0	1	-60	60;	%DE1 0 - DK1 0
	8	15	0.003052301449510847	0.02502887188598894	0.00019824710277172852	9473.625097078731	9473.625097078731	9473.625097078731	0	0	1	-60	60;	%DE1 0 - FR1 0
	8	25	0.003567833648762204	0.02925623591985007	3.056988125714905e-05	3440.892134316332	3440.892134316332	3440.892134316332	0	0	1	-60	60;	%DE1 0 - LU1 0
	8	29	0.0010137080559796212	0.008312406059032893	0.00013538413342828915	13584.82089392422	13584.82089392422	13584.82089392422	0	0	1	-60	60;	%DE1 0 - NL1 0
	1	34	0.005794692518950292	0.047516478655392394	2.010621214505574e-05	2189.658630928575	2189.658630928575	2189.658630928575	0	0	1	-60	60;	%AL1 0 - RS1 0
	8	31	0.004353603674522505	0.03569955013108455	0.00014535961741861056	6792.41044696211	6792.41044696211	6792.41044696211	0	0	1	-60	60;	%DE1 0 - PL1 0
	10	35	0.008840156449238027	0.07248928288375181	7.378954628448345e-05	3396.205223481055	3396.205223481055	3396.205223481055	0	0	1	-60	60;	%DK2 0 - SE2 0
	11	26	0.003946355190980939	0.0323601125660437	2.5984323908562167e-05	3016.3664813811993	3016.3664813811993	3016.3664813811993	0	0	1	-60	60;	%EE6 0 - LV6 0
	12	15	0.008738359575119186	0.07165454851597733	0.00012128016169455197	4379.31726185715	4379.31726185715	4379.31726185715	0	0	1	-60	60;	%ES1 0 - FR1 0
	12	32	0.0012062259975185962	0.00989105317965249	0.00019796854473826301	15059.488951488362	15059.488951488362	15059.488951488362	0	0	1	-60	60;	%ES1 0 - PT1 0
	14	35	0.00638205563753237	0.052332856227765435	5.3271567371009e-05	3396.205223481055	3396.205223481055	3396.205223481055	0	0	1	-60	60;	%FI2 0 - SE2 0
	15	22	0.005999890024650515	0.04919909820213423	0.0001354786999209816	5585.86385440963	5585.86385440963	5585.86385440963	0	0	1	-60	60;	%FR1 0 - IT1 0
	17	21	0.010361795849826232	0.08496672596857512	7.2474978884987885e-06	983.1120383760948	983.1120383760948	983.1120383760948	0	0	1	-60	60;	%GB5 0 - IE5 0
	18	28	0.004004202725752439	0.03283446235117	3.342342458088874e-05	3396.205223481055	3396.205223481055	3396.205223481055	0	0	1	-60	60;	%GR1 0 - MK1 0
	19	20	0.001988073686819386	0.016302204231918964	6.637848828712408e-05	6792.41044696211	6792.41044696211	6792.41044696211	0	0	1	-60	60;	%HR1 0 - HU1 0
	2	6	0.0026944375762084686	0.022094388124909443	8.996280886292391e-05	6792.41044696211	6792.41044696211	6792.41044696211	0	0	1	-60	60;	%AT1 0 - CH1 0
	19	34	0.009775397280548185	0.08015825770049513	2.0399020487482383e-05	1698.1026117405274	1698.1026117405274	1698.1026117405274	0	0	1	-60	60;	%HR1 0 - RS1 0
	19	36	0.001061017767836014	0.008700345696255314	2.8360127421173892e-05	6077.419873597677	6077.419873597677	6077.419873597677	0	0	1	-60	60;	%HR1 0 - SI1 0
	20	33	0.006636093665607568	0.054415968057982045	5.539204464291175e-05	3396.205223481055	3396.205223481055	3396.205223481055	0	0	1	-60	60;	%HU1 0 - RO1 0
	20	34	0.009655208499685108	0.07917270969741788	2.0148213964450305e-05	1698.1026117405274	1698.1026117405274	1698.1026117405274	0	0	1	-60	60;	%HU1 0 - RS1 0
	20	37	0.0020794721545383987	0.017051671667214868	1.7357532943642834e-05	3396.205223481055	3396.205223481055	3396.205223481055	0	0	1	-60	60;	%HU1 0 - SK1 0
	22	36	0.007514020690225535	0.06161496965984938	2.607187414447671e-05	2189.658630928575	2189.658630928575	2189.658630928575	0	0	1	-60	60;	%IT1 0 - SI1 0
	24	26	0.002102615191994796	0.017241444574357327	2.4612318201292353e-05	4021.8219751749325	4021.8219751749325	4021.8219751749325	0	0	1	-60	60;	%LT6 0 - LV6 0
	27	34	0.003126505250815498	0.025637343056687086	1.6265573015727845e-05	2681.214650116622	2681.214650116622	2681.214650116622	0	0	1	-60	60;	%ME1 0 - RS1 0
	28	34	0.003785008600601789	0.03103707052493467	3.1593792363861075e-05	3396.205223481055	3396.205223481055	3396.205223481055	0	0	1	-60	60;	%MK1 0 - RS1 0
	30	35	0.0024786328048168375	0.02032478899949807	9.516891246805635e-05	7283.966466150157	7283.966466150157	7283.966466150157	0	0	1	-60	60;	%NO2 0 - SE2 0
	2	7	0.0028351633943507356	0.02324833983367603	3.934938496653041e-05	4379.31726185715	4379.31726185715	4379.31726185715	0	0	1	-60	60;	%AT1 0 - CZ1 0
	31	37	0.004238372016881548	0.034754650538428696	3.5378055796455685e-05	3396.205223481055	3396.205223481055	3396.205223481055	0	0	1	-60	60;	%PL1 0 - SK1 0
	33	34	0.003324374066655655	0.027259867346576365	6.243488164499935e-05	5094.3078352215825	5094.3078352215825	5094.3078352215825	0	0	1	-60	60;	%RO1 0 - RS1 0
	2	8	0.0013316115224353564	0.010919214483969923	0.00024801282886009247	16042.600989864455	16042.600989864455	16042.600989864455	0	0	1	-60	60;	%AT1 0 - DE1 0
	2	20	0.004015691830712427	0.032928673011841894	5.573400251587286e-05	4379.31726185715	4379.31726185715	4379.31726185715	0	0	1	-60	60;	%AT1 0 - HU1 0
	2	22	0.04171419942875124	0.3420564353157602	7.2941885909999375e-06	491.5560191880474	491.5560191880474	491.5560191880474	0	0	1	-60	60;	%AT1 0 - IT1 0
	2	36	0.0020781020444500566	0.017040436764490463	2.2730714081766998e-05	3887.761242669102	3887.761242669102	3887.761242669102	0	0	1	-60	60;	%AT1 0 - SI1 0
];
%% dcline data
%	fbus	tbus	status	Pf	Pt	Qf	Qt	Vf	Vt	Pmin	Pmax	QminF	QmaxF	QminT	QmaxT	loss0	loss1
mpc.dcline = [
	22	18	1	0.0	0.0	0.0	0.0	1.0	1.0	-500.0	500.0	-500.0	500.0	-500.0	500.0	0.0	0.01;	%IT1 0 - GR1 0
	13	12	1	0.0	0.0	0.0	0.0	1.0	1.0	-400.0	400.0	-400.0	400.0	-400.0	400.0	0.0	0.01;	%ES4 0 - ES1 0
	22	23	1	0.0	0.0	0.0	0.0	1.0	1.0	-1000.0	1000.0	-1000.0	1000.0	-1000.0	1000.0	0.0	0.01;	%IT1 0 - IT3 0
	22	27	1	0.0	0.0	0.0	0.0	1.0	1.0	-1000.0	1000.0	-1000.0	1000.0	-1000.0	1000.0	0.0	0.01;	%IT1 0 - ME1 0
	15	12	1	0.0	0.0	0.0	0.0	1.0	1.0	-2000.0	2000.0	-2000.0	2000.0	-2000.0	2000.0	0.0	0.01;	%FR1 0 - ES1 0
	8	4	1	0.0	0.0	0.0	0.0	1.0	1.0	-1000.0	1000.0	-1000.0	1000.0	-1000.0	1000.0	0.0	0.01;	%DE1 0 - BE1 0
	16	29	1	0.0	0.0	0.0	0.0	1.0	1.0	-1000.0	1000.0	-1000.0	1000.0	-1000.0	1000.0	0.0	0.01;	%GB0 0 - NL1 0
	16	15	1	0.0	0.0	0.0	0.0	1.0	1.0	-2000.0	2000.0	-2000.0	2000.0	-2000.0	2000.0	0.0	0.01;	%GB0 0 - FR1 0
	24	35	1	0.0	0.0	0.0	0.0	1.0	1.0	-700.0	700.0	-700.0	700.0	-700.0	700.0	0.0	0.01;	%LT6 0 - SE2 0
	10	9	1	0.0	0.0	0.0	0.0	1.0	1.0	-600.0	600.0	-600.0	600.0	-600.0	600.0	0.0	0.01;	%DK2 0 - DK1 0
	10	8	1	0.0	0.0	0.0	0.0	1.0	1.0	-600.0	600.0	-600.0	600.0	-600.0	600.0	0.0	0.01;	%DK2 0 - DE1 0
	35	8	1	0.0	0.0	0.0	0.0	1.0	1.0	-600.0	600.0	-600.0	600.0	-600.0	600.0	0.0	0.01;	%SE2 0 - DE1 0
	31	35	1	0.0	0.0	0.0	0.0	1.0	1.0	-600.0	600.0	-600.0	600.0	-600.0	600.0	0.0	0.01;	%PL1 0 - SE2 0
	29	9	1	0.0	0.0	0.0	0.0	1.0	1.0	-700.0	700.0	-700.0	700.0	-700.0	700.0	0.0	0.01;	%NL1 0 - DK1 0
	29	30	1	0.0	0.0	0.0	0.0	1.0	1.0	-700.0	700.0	-700.0	700.0	-700.0	700.0	0.0	0.01;	%NL1 0 - NO2 0
	8	30	1	0.0	0.0	0.0	0.0	1.0	1.0	-1400.0	1400.0	-1400.0	1400.0	-1400.0	1400.0	0.0	0.01;	%DE1 0 - NO2 0
	16	17	1	0.0	0.0	0.0	0.0	1.0	1.0	-2501.0	2501.0	-2501.0	2501.0	-2501.0	2501.0	0.0	0.01;	%GB0 0 - GB5 0
	16	17	1	0.0	0.0	0.0	0.0	1.0	1.0	-250.0	250.0	-250.0	250.0	-250.0	250.0	0.0	0.01;	%GB0 0 - GB5 0
	16	21	1	0.0	0.0	0.0	0.0	1.0	1.0	-500.0	500.0	-500.0	500.0	-500.0	500.0	0.0	0.01;	%GB0 0 - IE5 0
	35	9	1	0.0	0.0	0.0	0.0	1.0	1.0	-250.0	250.0	-250.0	250.0	-250.0	250.0	0.0	0.01;	%SE2 0 - DK1 0
	35	9	1	0.0	0.0	0.0	0.0	1.0	1.0	-300.0	300.0	-300.0	300.0	-300.0	300.0	0.0	0.01;	%SE2 0 - DK1 0
	14	11	1	0.0	0.0	0.0	0.0	1.0	1.0	-600.0	600.0	-600.0	600.0	-600.0	600.0	0.0	0.01;	%FI2 0 - EE6 0
	14	11	1	0.0	0.0	0.0	0.0	1.0	1.0	-650.0	650.0	-650.0	650.0	-650.0	650.0	0.0	0.01;	%FI2 0 - EE6 0
	35	14	1	0.0	0.0	0.0	0.0	1.0	1.0	-800.0	800.0	-800.0	800.0	-800.0	800.0	0.0	0.01;	%SE2 0 - FI2 0
	35	14	1	0.0	0.0	0.0	0.0	1.0	1.0	-500.0	500.0	-500.0	500.0	-500.0	500.0	0.0	0.01;	%SE2 0 - FI2 0
	12	15	1	0.0	0.0	0.0	0.0	1.0	1.0	-2200.0	2200.0	-2200.0	2200.0	-2200.0	2200.0	0.0	0.01;	%ES1 0 - FR1 0
	22	15	1	0.0	0.0	0.0	0.0	1.0	1.0	-1000.0	1000.0	-1000.0	1000.0	-1000.0	1000.0	0.0	0.01;	%IT1 0 - FR1 0
	15	16	1	0.0	0.0	0.0	0.0	1.0	1.0	-1000.0	1000.0	-1000.0	1000.0	-1000.0	1000.0	0.0	0.01;	%FR1 0 - GB0 0
	16	4	1	0.0	0.0	0.0	0.0	1.0	1.0	-1000.0	1000.0	-1000.0	1000.0	-1000.0	1000.0	0.0	0.01;	%GB0 0 - BE1 0
	16	15	1	0.0	0.0	0.0	0.0	1.0	1.0	-1400.0	1400.0	-1400.0	1400.0	-1400.0	1400.0	0.0	0.01;	%GB0 0 - FR1 0
	16	9	1	0.0	0.0	0.0	0.0	1.0	1.0	-1400.0	1400.0	-1400.0	1400.0	-1400.0	1400.0	0.0	0.01;	%GB0 0 - DK1 0
	22	6	1	0.0	0.0	0.0	0.0	1.0	1.0	-1000.0	1000.0	-1000.0	1000.0	-1000.0	1000.0	0.0	0.01;	%IT1 0 - CH1 0
	30	16	1	0.0	0.0	0.0	0.0	1.0	1.0	-1400.0	1400.0	-1400.0	1400.0	-1400.0	1400.0	0.0	0.01;	%NO2 0 - GB0 0
	16	15	1	0.0	0.0	0.0	0.0	1.0	1.0	-2000.0	2000.0	-2000.0	2000.0	-2000.0	2000.0	0.0	0.01;	%GB0 0 - FR1 0
	16	15	1	0.0	0.0	0.0	0.0	1.0	1.0	-1400.0	1400.0	-1400.0	1400.0	-1400.0	1400.0	0.0	0.01;	%GB0 0 - FR1 0
	16	8	1	0.0	0.0	0.0	0.0	1.0	1.0	-1400.0	1400.0	-1400.0	1400.0	-1400.0	1400.0	0.0	0.01;	%GB0 0 - DE1 0
	21	16	1	0.0	0.0	0.0	0.0	1.0	1.0	-500.0	500.0	-500.0	500.0	-500.0	500.0	0.0	0.01;	%IE5 0 - GB0 0
	21	15	1	0.0	0.0	0.0	0.0	1.0	1.0	-700.0	700.0	-700.0	700.0	-700.0	700.0	0.0	0.01;	%IE5 0 - FR1 0
	31	24	1	0.0	0.0	0.0	0.0	1.0	1.0	-2000.0	2000.0	-2000.0	2000.0	-2000.0	2000.0	0.0	0.01;	%PL1 0 - LT6 0
	22	23	1	0.0	0.0	0.0	0.0	1.0	1.0	-300.0	300.0	-300.0	300.0	-300.0	300.0	0.0	0.01;	%IT1 0 - IT3 0
	8	35	1	0.0	0.0	0.0	0.0	1.0	1.0	-700.0	700.0	-700.0	700.0	-700.0	700.0	0.0	0.01;	%DE1 0 - SE2 0
	9	30	1	0.0	0.0	0.0	0.0	1.0	1.0	-1140.0	1140.0	-1140.0	1140.0	-1140.0	1140.0	0.0	0.01;	%DK1 0 - NO2 0
	30	16	1	0.0	0.0	0.0	0.0	1.0	1.0	-0.0	0.0	-0.0	0.0	-0.0	0.0	0.0	0.01;	%NO2 0 - GB0 0
];
